<?xml version="1.0" encoding="UTF-8"?>

<!-- generated on 2024-04-25 14:04:25.078152 by osmWebWizard.py v1_19_0+0000-baa66a0f364
<configuration>
    <net-file value="C:\Users\Alexandre-PC\Sumo\2024-04-25-14-04-17\osm.net.xml.gz"/>
    <output-trip-file value="C:\Users\Alexandre-PC\Sumo\2024-04-25-14-04-17\osm.passenger.trips.xml"/>
    <route-file value="C:\Users\Alexandre-PC\Sumo\2024-04-25-14-04-17\osm.passenger.rou.xml"/>
    <prefix value="veh"/>
    <trip-attributes value="departLane=&quot;best&quot;"/>
    <fringe-start-attributes value="departSpeed=&quot;max&quot;"/>
    <vehicle-class value="passenger"/>
    <lanes value="True"/>
    <fringe-factor value="5"/>
    <allow-fringe.min-length value="1000.0"/>
    <via-edge-types value="highway.motorway,highway.motorway_link,highway.trunk_link,highway.primary_link,highway.secondary_link,highway.tertiary_link"/>
    <min-distance value="300.0"/>
    <min-distance.fringe value="10.0"/>
    <remove-loops value="True"/>
    <validate value="True"/>
    <insertion-density value="50.0"/>
</configuration>
-->

<!-- generated on 2024-04-25 14:04:24 by Eclipse SUMO duarouter Version 1.19.0
<configuration xmlns:xsi="http://www.w3.org/2001/XMLSchema-instance" xsi:noNamespaceSchemaLocation="http://sumo.dlr.de/xsd/duarouterConfiguration.xsd">

    <input>
        <net-file value="C:\Users\Alexandre-PC\Sumo\2024-04-25-14-04-17\osm.net.xml.gz"/>
        <route-files value="C:\Users\Alexandre-PC\Sumo\2024-04-25-14-04-17\osm.passenger.trips.xml"/>
    </input>

    <output>
        <output-file value="C:\Users\Alexandre-PC\Sumo\2024-04-25-14-04-17\osm.passenger.trips.xml.tmp"/>
        <alternatives-output value="NUL"/>
        <write-trips value="true"/>
    </output>

    <processing>
        <remove-loops value="true"/>
    </processing>

    <time>
        <begin value="0.0"/>
        <end value="3600.0"/>
    </time>

    <report>
        <no-warnings value="true"/>
        <ignore-errors value="true"/>
        <no-step-log value="true"/>
    </report>

</configuration>
-->

<routes xmlns:xsi="http://www.w3.org/2001/XMLSchema-instance" xsi:noNamespaceSchemaLocation="http://sumo.dlr.de/xsd/routes_file.xsd">
    <vType id="veh_passenger" vClass="passenger"/>
    <trip id="veh0" type="veh_passenger" depart="0.00" departLane="best" departSpeed="max" from="32643376#0" to="239298364#2"/>
    <trip id="veh1" type="veh_passenger" depart="1.35" departLane="best" from="-778244076#9" to="-32742935"/>
    <trip id="veh2" type="veh_passenger" depart="2.70" departLane="best" from="-393508969#3" to="32742938"/>
    <trip id="veh4" type="veh_passenger" depart="5.40" departLane="best" from="27553565" to="31054615#3"/>
    <trip id="veh5" type="veh_passenger" depart="6.74" departLane="best" from="-652942138#4" to="27553563#0"/>
    <trip id="veh6" type="veh_passenger" depart="8.09" departLane="best" from="31054615#1" to="-32643383"/>
    <trip id="veh7" type="veh_passenger" depart="9.44" departLane="best" departSpeed="max" from="32643383" to="311542351#6"/>
    <trip id="veh8" type="veh_passenger" depart="10.79" departLane="best" departSpeed="max" from="-652942138#5" to="32138468#1"/>
    <trip id="veh11" type="veh_passenger" depart="14.84" departLane="best" from="1023986613" to="-32641108#1"/>
    <trip id="veh12" type="veh_passenger" depart="16.19" departLane="best" departSpeed="max" from="852028350#0" to="-778244075#0"/>
    <trip id="veh13" type="veh_passenger" depart="17.54" departLane="best" from="-32641101#0" to="-32138509"/>
    <trip id="veh16" type="veh_passenger" depart="21.58" departLane="best" departSpeed="max" from="32138487" to="852028399#4"/>
    <trip id="veh17" type="veh_passenger" depart="22.93" departLane="best" from="1196381412" to="311542731#0"/>
    <trip id="veh18" type="veh_passenger" depart="24.28" departLane="best" from="-749163623#0" to="-31728921#7"/>
    <trip id="veh19" type="veh_passenger" depart="25.63" departLane="best" from="32742941#3" to="-31527213#3"/>
    <trip id="veh20" type="veh_passenger" depart="26.98" departLane="best" departSpeed="max" from="-652942140#1" to="-397813671#0"/>
    <trip id="veh21" type="veh_passenger" depart="28.33" departLane="best" from="32141400#5" to="-32742937"/>
    <trip id="veh22" type="veh_passenger" depart="29.68" departLane="best" from="-32641112#4" to="-393508972#5"/>
    <trip id="veh23" type="veh_passenger" depart="31.03" departLane="best" departSpeed="max" from="32643374" to="-84618368#2"/>
    <trip id="veh25" type="veh_passenger" depart="33.72" departLane="best" from="778244075#5" to="84665769#0"/>
    <trip id="veh26" type="veh_passenger" depart="35.07" departLane="best" departSpeed="max" from="32643383" to="32138528#0"/>
    <trip id="veh27" type="veh_passenger" depart="36.42" departLane="best" from="32743448#3" to="-393508972#3"/>
    <trip id="veh28" type="veh_passenger" depart="37.77" departLane="best" from="-32743433#2" to="84618397#16"/>
    <trip id="veh29" type="veh_passenger" depart="39.12" departLane="best" departSpeed="max" from="94991594#0" to="32641112#2"/>
    <trip id="veh30" type="veh_passenger" depart="40.47" departLane="best" departSpeed="max" from="32138518" to="32742939"/>
    <trip id="veh32" type="veh_passenger" depart="43.17" departLane="best" departSpeed="max" from="-652942140#1" to="31054615#5"/>
    <trip id="veh33" type="veh_passenger" depart="44.52" departLane="best" departSpeed="max" from="-84672785" to="-341908898#0"/>
    <trip id="veh34" type="veh_passenger" depart="45.86" departLane="best" from="50084610#0" to="84672785"/>
    <trip id="veh35" type="veh_passenger" depart="47.21" departLane="best" from="778243042#2" to="652942138#4"/>
    <trip id="veh36" type="veh_passenger" depart="48.56" departLane="best" from="32676478#1" to="84672818#1"/>
    <trip id="veh37" type="veh_passenger" depart="49.91" departLane="best" departSpeed="max" from="84618376#0" to="1196785407#2"/>
    <trip id="veh38" type="veh_passenger" depart="51.26" departLane="best" from="778244075#3" to="-32743431#1"/>
    <trip id="veh39" type="veh_passenger" depart="52.61" departLane="best" departSpeed="max" from="32138520#0" to="-341908898#0"/>
    <trip id="veh40" type="veh_passenger" depart="53.96" departLane="best" from="32141400#2" to="84618397#10"/>
    <trip id="veh41" type="veh_passenger" depart="55.31" departLane="best" from="239298363#3" to="-32742934"/>
    <trip id="veh42" type="veh_passenger" depart="56.66" departLane="best" from="977380417#2" to="27553563#1"/>
    <trip id="veh43" type="veh_passenger" depart="58.01" departLane="best" from="-32641099#0" to="-31527213#4"/>
    <trip id="veh44" type="veh_passenger" depart="59.35" departLane="best" from="50084610#0" to="103961465"/>
    <trip id="veh45" type="veh_passenger" depart="60.70" departLane="best" from="-32138474" to="84618397#2"/>
    <trip id="veh46" type="veh_passenger" depart="62.05" departLane="best" from="977380417#1" to="31054615#4"/>
    <trip id="veh47" type="veh_passenger" depart="63.40" departLane="best" from="-852028396" to="-778244075#2"/>
    <trip id="veh48" type="veh_passenger" depart="64.75" departLane="best" from="173285384#0" to="-32743448#4"/>
    <trip id="veh49" type="veh_passenger" depart="66.10" departLane="best" departSpeed="max" from="32742934" to="311542351#2"/>
    <trip id="veh50" type="veh_passenger" depart="67.45" departLane="best" departSpeed="max" from="-32643370" to="103961468#1"/>
    <trip id="veh51" type="veh_passenger" depart="68.80" departLane="best" departSpeed="max" from="31527204#0" to="847063471"/>
    <trip id="veh52" type="veh_passenger" depart="70.15" departLane="best" from="778243042#1" to="-341908898#0"/>
    <trip id="veh53" type="veh_passenger" depart="71.49" departLane="best" from="31728922#3" to="-32641112#9"/>
    <trip id="veh54" type="veh_passenger" depart="72.84" departLane="best" departSpeed="max" from="84618376#0" to="-778244076#6"/>
    <trip id="veh55" type="veh_passenger" depart="74.19" departLane="best" from="-84618397#16" to="32641112#10"/>
    <trip id="veh56" type="veh_passenger" depart="75.54" departLane="best" from="397813673#3" to="311542351#3"/>
    <trip id="veh57" type="veh_passenger" depart="76.89" departLane="best" departSpeed="max" from="449063711" to="31054615#5"/>
    <trip id="veh58" type="veh_passenger" depart="78.24" departLane="best" from="103961468#0" to="73036420#1"/>
    <trip id="veh60" type="veh_passenger" depart="80.94" departLane="best" from="-84652637#0" to="-31728921#7"/>
    <trip id="veh61" type="veh_passenger" depart="82.29" departLane="best" from="778243042#3" to="84672818#2"/>
    <trip id="veh62" type="veh_passenger" depart="83.64" departLane="best" from="32641093#1" to="239298364#1"/>
    <trip id="veh63" type="veh_passenger" depart="84.98" departLane="best" from="-32138528#0" to="42721405#1"/>
    <trip id="veh64" type="veh_passenger" depart="86.33" departLane="best" from="-41808630#1" to="32141399#1"/>
    <trip id="veh65" type="veh_passenger" depart="87.68" departLane="best" departSpeed="max" from="31527213#0" to="311542729#2"/>
    <trip id="veh66" type="veh_passenger" depart="89.03" departLane="best" from="778244075#3" to="778244076#7"/>
    <trip id="veh67" type="veh_passenger" depart="90.38" departLane="best" from="298982717" to="-32742822#1"/>
    <trip id="veh68" type="veh_passenger" depart="91.73" departLane="best" departSpeed="max" from="32138492" to="-393508972#4"/>
    <trip id="veh69" type="veh_passenger" depart="93.08" departLane="best" from="42720838#1" to="652942138#0"/>
    <trip id="veh70" type="veh_passenger" depart="94.43" departLane="best" from="94991594#2" to="-32642634#2"/>
    <trip id="veh71" type="veh_passenger" depart="95.78" departLane="best" from="311542351#3" to="27553563#1"/>
    <trip id="veh73" type="veh_passenger" depart="98.47" departLane="best" from="977380417#3" to="32138468#0"/>
    <trip id="veh74" type="veh_passenger" depart="99.82" departLane="best" departSpeed="max" from="-652942140#1" to="-32742934"/>
    <trip id="veh75" type="veh_passenger" depart="101.17" departLane="best" from="32138528#2" to="-32641093#6"/>
    <trip id="veh76" type="veh_passenger" depart="102.52" departLane="best" departSpeed="max" from="-652942140#1" to="84618397#2"/>
    <trip id="veh77" type="veh_passenger" depart="103.87" departLane="best" from="-749162606#2" to="-32138467#3"/>
    <trip id="veh79" type="veh_passenger" depart="106.57" departLane="best" from="641311421#1" to="-32141400#11"/>
    <trip id="veh80" type="veh_passenger" depart="107.92" departLane="best" from="84618414#0" to="-31728921#1"/>
    <trip id="veh81" type="veh_passenger" depart="109.27" departLane="best" departSpeed="max" from="31527213#0" to="616568701#3"/>
    <trip id="veh83" type="veh_passenger" depart="111.96" departLane="best" from="-32641112#1" to="103961467#4"/>
    <trip id="veh84" type="veh_passenger" depart="113.31" departLane="best" departSpeed="max" from="341908898#0" to="32742866#1"/>
    <trip id="veh85" type="veh_passenger" depart="114.66" departLane="best" from="878666844#0" to="-32138509"/>
    <trip id="veh86" type="veh_passenger" depart="116.01" departLane="best" from="-239298364#1" to="-778244075#2"/>
    <trip id="veh87" type="veh_passenger" depart="117.36" departLane="best" from="749163623#0" to="32743432#3"/>
    <trip id="veh88" type="veh_passenger" depart="118.71" departLane="best" from="397813671#1" to="1102319814#1"/>
    <trip id="veh89" type="veh_passenger" depart="120.06" departLane="best" from="27553565" to="-393508972#5"/>
    <trip id="veh90" type="veh_passenger" depart="121.41" departLane="best" departSpeed="max" from="-749162606#4" to="84618414#0"/>
    <trip id="veh91" type="veh_passenger" depart="122.76" departLane="best" from="311542351#5" to="-778244075#2"/>
    <trip id="veh92" type="veh_passenger" depart="124.10" departLane="best" departSpeed="max" from="32138516" to="-31678837#3"/>
    <trip id="veh93" type="veh_passenger" depart="125.45" departLane="best" from="977380417#4" to="-32141400#7"/>
    <trip id="veh94" type="veh_passenger" depart="126.80" departLane="best" from="852028395#1" to="84652581#3"/>
    <trip id="veh96" type="veh_passenger" depart="129.50" departLane="best" from="31728909#3" to="32742866#1"/>
    <trip id="veh97" type="veh_passenger" depart="130.85" departLane="best" from="-239298364#0" to="-31728921#7"/>
    <trip id="veh98" type="veh_passenger" depart="132.20" departLane="best" from="-1196785407#0" to="852028399#8"/>
    <trip id="veh99" type="veh_passenger" depart="133.55" departLane="best" from="778244075#3" to="616568701#2"/>
    <trip id="veh100" type="veh_passenger" depart="134.90" departLane="best" departSpeed="max" from="31527204#0" to="103961466"/>
    <trip id="veh101" type="veh_passenger" depart="136.24" departLane="best" departSpeed="max" from="852028350#0" to="94991594#2"/>
    <trip id="veh102" type="veh_passenger" depart="137.59" departLane="best" departSpeed="max" from="32138518" to="-32743448#2"/>
    <trip id="veh103" type="veh_passenger" depart="138.94" departLane="best" from="-32743432#4" to="-397813673#2"/>
    <trip id="veh104" type="veh_passenger" depart="140.29" departLane="best" from="852028395#1" to="-31728922#1"/>
    <trip id="veh105" type="veh_passenger" depart="141.64" departLane="best" departSpeed="max" from="32138492" to="397813673#3"/>
    <trip id="veh106" type="veh_passenger" depart="142.99" departLane="best" from="-32138468#1" to="32138467#1"/>
    <trip id="veh107" type="veh_passenger" depart="144.34" departLane="best" from="31728924" to="749163623#4"/>
    <trip id="veh108" type="veh_passenger" depart="145.69" departLane="best" departSpeed="max" from="-32743432#5" to="852028395#0"/>
    <trip id="veh110" type="veh_passenger" depart="148.39" departLane="best" from="32641093#5" to="32742866#2"/>
    <trip id="veh111" type="veh_passenger" depart="149.73" departLane="best" departSpeed="max" from="-652942143#3" to="-32138526#0"/>
    <trip id="veh112" type="veh_passenger" depart="151.08" departLane="best" from="32641093#4" to="-32141400#2"/>
    <trip id="veh114" type="veh_passenger" depart="153.78" departLane="best" departSpeed="max" from="32138476" to="84665709#1"/>
    <trip id="veh115" type="veh_passenger" depart="155.13" departLane="best" from="-42721405#0" to="32743447#2"/>
    <trip id="veh116" type="veh_passenger" depart="156.48" departLane="best" departSpeed="max" from="-652942143#3" to="84672818#1"/>
    <trip id="veh117" type="veh_passenger" depart="157.83" departLane="best" from="-32742822#0" to="41808630#1"/>
    <trip id="veh118" type="veh_passenger" depart="159.18" departLane="best" departSpeed="max" from="-84672785" to="84665769#0"/>
    <trip id="veh119" type="veh_passenger" depart="160.53" departLane="best" from="-32141399#1" to="1196785407#1"/>
    <trip id="veh120" type="veh_passenger" depart="161.87" departLane="best" from="-32141399#1" to="32742866#0"/>
    <trip id="veh121" type="veh_passenger" depart="163.22" departLane="best" from="778244075#3" to="84665709#0"/>
    <trip id="veh122" type="veh_passenger" depart="164.57" departLane="best" from="778244075#3" to="807094896"/>
    <trip id="veh123" type="veh_passenger" depart="165.92" departLane="best" from="1102319814#0" to="-32641110"/>
    <trip id="veh124" type="veh_passenger" depart="167.27" departLane="best" from="-652942143#1" to="32743432#4"/>
    <trip id="veh125" type="veh_passenger" depart="168.62" departLane="best" departSpeed="max" from="32641110" to="852028399#8"/>
    <trip id="veh126" type="veh_passenger" depart="169.97" departLane="best" departSpeed="max" from="585416246#0" to="41808630#1"/>
    <trip id="veh127" type="veh_passenger" depart="171.32" departLane="best" from="32676491#5" to="84672785"/>
    <trip id="veh128" type="veh_passenger" depart="172.67" departLane="best" departSpeed="max" from="-32742939" to="-32138520#0"/>
    <trip id="veh130" type="veh_passenger" depart="175.36" departLane="best" from="778244076#5" to="-32138520#1"/>
    <trip id="veh132" type="veh_passenger" depart="178.06" departLane="best" departSpeed="max" from="32643374" to="-341908898#0"/>
    <trip id="veh133" type="veh_passenger" depart="179.41" departLane="best" from="397813663#2" to="84618397#2"/>
    <trip id="veh135" type="veh_passenger" depart="182.11" departLane="best" from="298982717" to="-393508972#4"/>
    <trip id="veh136" type="veh_passenger" depart="183.46" departLane="best" from="1108593179" to="-50084610#0"/>
    <trip id="veh137" type="veh_passenger" depart="184.81" departLane="best" departSpeed="max" from="32643374" to="-32743448#4"/>
    <trip id="veh138" type="veh_passenger" depart="186.16" departLane="best" from="393508972#4" to="311542729#5"/>
    <trip id="veh139" type="veh_passenger" depart="187.51" departLane="best" from="31054615#3" to="1196785407#5"/>
    <trip id="veh140" type="veh_passenger" depart="188.85" departLane="best" from="32141400#0" to="84618346#0"/>
    <trip id="veh141" type="veh_passenger" depart="190.20" departLane="best" from="84618338#0" to="311542351#6"/>
    <trip id="veh142" type="veh_passenger" depart="191.55" departLane="best" from="-652942143#2" to="31728922#4"/>
    <trip id="veh143" type="veh_passenger" depart="192.90" departLane="best" departSpeed="max" from="-32742942" to="32141399#0"/>
    <trip id="veh144" type="veh_passenger" depart="194.25" departLane="best" from="-84652637#0" to="84618397#11"/>
    <trip id="veh145" type="veh_passenger" depart="195.60" departLane="best" from="50084611#2" to="-778244075#2"/>
    <trip id="veh147" type="veh_passenger" depart="198.30" departLane="best" departSpeed="max" from="-749162606#4" to="-32138516"/>
    <trip id="veh148" type="veh_passenger" depart="199.65" departLane="best" departSpeed="max" from="449063711" to="84618346#1"/>
    <trip id="veh149" type="veh_passenger" depart="200.99" departLane="best" from="25581736" to="-32141400#5"/>
    <trip id="veh150" type="veh_passenger" depart="202.34" departLane="best" from="-32743432#4" to="84654731#0"/>
    <trip id="veh151" type="veh_passenger" depart="203.69" departLane="best" from="-749163623#2" to="852028399#7"/>
    <trip id="veh153" type="veh_passenger" depart="206.39" departLane="best" from="-239298364#2" to="397813663#2"/>
    <trip id="veh154" type="veh_passenger" depart="207.74" departLane="best" from="-852028397" to="84654731#1"/>
    <trip id="veh157" type="veh_passenger" depart="211.79" departLane="best" from="449063716" to="-32138518"/>
    <trip id="veh158" type="veh_passenger" depart="213.14" departLane="best" departSpeed="max" from="778242913" to="778243042#3"/>
    <trip id="veh160" type="veh_passenger" depart="215.83" departLane="best" departSpeed="max" from="31527204#0" to="42721405#0"/>
    <trip id="veh161" type="veh_passenger" depart="217.18" departLane="best" from="50084611#1" to="-32742936"/>
    <trip id="veh162" type="veh_passenger" depart="218.53" departLane="best" from="-239298364#1" to="-32643376#0"/>
    <trip id="veh163" type="veh_passenger" depart="219.88" departLane="best" departSpeed="max" from="-847063471" to="-778244075#5"/>
    <trip id="veh164" type="veh_passenger" depart="221.23" departLane="best" from="1196073525" to="-397813659"/>
    <trip id="veh165" type="veh_passenger" depart="222.58" departLane="best" departSpeed="max" from="32643376#0" to="-94991594#0"/>
    <trip id="veh167" type="veh_passenger" depart="225.28" departLane="best" from="-84652637#0" to="-32138520#0"/>
    <trip id="veh168" type="veh_passenger" depart="226.62" departLane="best" from="852028395#1" to="-32641112#9"/>
    <trip id="veh169" type="veh_passenger" depart="227.97" departLane="best" from="852028350#1" to="-341908898#0"/>
    <trip id="veh170" type="veh_passenger" depart="229.32" departLane="best" from="32642634#2" to="103961468#1"/>
    <trip id="veh171" type="veh_passenger" depart="230.67" departLane="best" departSpeed="max" from="341908898#0" to="652942138#2"/>
    <trip id="veh172" type="veh_passenger" depart="232.02" departLane="best" departSpeed="max" from="32641108#0" to="27553563#1"/>
    <trip id="veh173" type="veh_passenger" depart="233.37" departLane="best" from="173285384#0" to="-31728921#6"/>
    <trip id="veh174" type="veh_passenger" depart="234.72" departLane="best" from="749163623#1" to="32743432#5"/>
    <trip id="veh175" type="veh_passenger" depart="236.07" departLane="best" from="103961468#1" to="84652581#2"/>
    <trip id="veh176" type="veh_passenger" depart="237.42" departLane="best" departSpeed="max" from="32138492" to="-32743448#3"/>
    <trip id="veh177" type="veh_passenger" depart="238.77" departLane="best" from="393508972#5" to="32742822#0"/>
    <trip id="veh178" type="veh_passenger" depart="240.11" departLane="best" from="1102319070#1" to="-32138467#1"/>
    <trip id="veh180" type="veh_passenger" depart="242.81" departLane="best" departSpeed="max" from="-84672785" to="749163623#0"/>
    <trip id="veh181" type="veh_passenger" depart="244.16" departLane="best" departSpeed="max" from="32743448#0" to="42720836"/>
    <trip id="veh182" type="veh_passenger" depart="245.51" departLane="best" from="-239298364#1" to="397813671#6"/>
    <trip id="veh183" type="veh_passenger" depart="246.86" departLane="best" departSpeed="max" from="-32742938" to="103961467#0"/>
    <trip id="veh184" type="veh_passenger" depart="248.21" departLane="best" from="-84652637#1" to="32742938"/>
    <trip id="veh185" type="veh_passenger" depart="249.56" departLane="best" from="807094896" to="-32141400#0"/>
    <trip id="veh186" type="veh_passenger" depart="250.91" departLane="best" from="-84618397#2" to="311542729#1"/>
    <trip id="veh187" type="veh_passenger" depart="252.26" departLane="best" from="103961468#0" to="-397813671#0"/>
    <trip id="veh188" type="veh_passenger" depart="253.60" departLane="best" from="-31054615#5" to="-31728922#2"/>
    <trip id="veh189" type="veh_passenger" depart="254.95" departLane="best" from="311542351#5" to="32742866#1"/>
    <trip id="veh190" type="veh_passenger" depart="256.30" departLane="best" departSpeed="max" from="31527213#0" to="84618397#14"/>
    <trip id="veh191" type="veh_passenger" depart="257.65" departLane="best" from="50084611#2" to="-32641112#10"/>
    <trip id="veh192" type="veh_passenger" depart="259.00" departLane="best" from="32641093#0" to="27553563#1"/>
    <trip id="veh193" type="veh_passenger" depart="260.35" departLane="best" from="-32642636#1" to="758383537#0"/>
    <trip id="veh194" type="veh_passenger" depart="261.70" departLane="best" from="-41808630#1" to="239298364#1"/>
    <trip id="veh195" type="veh_passenger" depart="263.05" departLane="best" from="-749162606#0" to="233041270#5"/>
    <trip id="veh198" type="veh_passenger" depart="267.09" departLane="best" from="397813671#6" to="32742942"/>
    <trip id="veh199" type="veh_passenger" depart="268.44" departLane="best" from="31728921#5" to="-32742941#3"/>
    <trip id="veh200" type="veh_passenger" depart="269.79" departLane="best" departSpeed="max" from="32676491#0" to="1196785407#1"/>
    <trip id="veh201" type="veh_passenger" depart="271.14" departLane="best" departSpeed="max" from="397813671#0" to="449081720"/>
    <trip id="veh202" type="veh_passenger" depart="272.49" departLane="best" from="-32641112#9" to="103961467#1"/>
    <trip id="veh204" type="veh_passenger" depart="275.19" departLane="best" departSpeed="max" from="-749162606#4" to="749163623#0"/>
    <trip id="veh205" type="veh_passenger" depart="276.54" departLane="best" departSpeed="max" from="31527204#0" to="652942140#0"/>
    <trip id="veh207" type="veh_passenger" depart="279.23" departLane="best" from="32641093#5" to="84672818#2"/>
    <trip id="veh208" type="veh_passenger" depart="280.58" departLane="best" from="778244076#9" to="32141399#0"/>
    <trip id="veh209" type="veh_passenger" depart="281.93" departLane="best" departSpeed="max" from="32743448#0" to="27553558"/>
    <trip id="veh210" type="veh_passenger" depart="283.28" departLane="best" from="-652942138#4" to="311542729#1"/>
    <trip id="veh212" type="veh_passenger" depart="285.98" departLane="best" departSpeed="max" from="31527213#0" to="-32743448#1"/>
    <trip id="veh213" type="veh_passenger" depart="287.33" departLane="best" from="-749162606#3" to="32641108#2"/>
    <trip id="veh215" type="veh_passenger" depart="290.03" departLane="best" from="32641112#7" to="-393508972#2"/>
    <trip id="veh216" type="veh_passenger" depart="291.37" departLane="best" from="32141400#10" to="-397813671#0"/>
    <trip id="veh217" type="veh_passenger" depart="292.72" departLane="best" from="778244076#4" to="-723579992#0"/>
    <trip id="veh218" type="veh_passenger" depart="294.07" departLane="best" departSpeed="max" from="32138492" to="32141400#9"/>
    <trip id="veh219" type="veh_passenger" depart="295.42" departLane="best" from="-652942143#0" to="-32742941#4"/>
    <trip id="veh220" type="veh_passenger" depart="296.77" departLane="best" from="32743431#0" to="-31728922#5"/>
    <trip id="veh223" type="veh_passenger" depart="300.82" departLane="best" from="32141400#10" to="32742942"/>
    <trip id="veh224" type="veh_passenger" depart="302.17" departLane="best" from="-73036420#0" to="42721405#2"/>
    <trip id="veh225" type="veh_passenger" depart="303.52" departLane="best" from="103961467#0" to="42720834"/>
    <trip id="veh226" type="veh_passenger" depart="304.86" departLane="best" from="723579992#2" to="847063471"/>
    <trip id="veh228" type="veh_passenger" depart="307.56" departLane="best" departSpeed="max" from="-652942138#5" to="-32742934"/>
    <trip id="veh229" type="veh_passenger" depart="308.91" departLane="best" from="311542351#2" to="31054615#3"/>
    <trip id="veh230" type="veh_passenger" depart="310.26" departLane="best" from="-977380417#1" to="32742938"/>
    <trip id="veh231" type="veh_passenger" depart="311.61" departLane="best" from="244629770" to="-32641112#0"/>
    <trip id="veh232" type="veh_passenger" depart="312.96" departLane="best" departSpeed="max" from="31527213#0" to="32141399#1"/>
    <trip id="veh233" type="veh_passenger" depart="314.31" departLane="best" from="32641112#3" to="-31054615#1"/>
    <trip id="veh234" type="veh_passenger" depart="315.66" departLane="best" from="-237156813#0" to="31728909#1"/>
    <trip id="veh235" type="veh_passenger" depart="317.01" departLane="best" from="31054615#1" to="32641112#4"/>
    <trip id="veh236" type="veh_passenger" depart="318.35" departLane="best" departSpeed="max" from="-32742939" to="1196785407#4"/>
    <trip id="veh237" type="veh_passenger" depart="319.70" departLane="best" from="31728922#2" to="84618397#15"/>
    <trip id="veh238" type="veh_passenger" depart="321.05" departLane="best" from="50084610#0" to="749162606#2"/>
    <trip id="veh239" type="veh_passenger" depart="322.40" departLane="best" from="397813673#2" to="84618397#15"/>
    <trip id="veh240" type="veh_passenger" depart="323.75" departLane="best" departSpeed="max" from="397813671#0" to="723579992#0"/>
    <trip id="veh241" type="veh_passenger" depart="325.10" departLane="best" departSpeed="max" from="-749162606#4" to="-32138485#1"/>
    <trip id="veh242" type="veh_passenger" depart="326.45" departLane="best" from="977380417#4" to="-778244076#7"/>
    <trip id="veh243" type="veh_passenger" depart="327.80" departLane="best" departSpeed="max" from="32643383" to="-32743448#4"/>
    <trip id="veh244" type="veh_passenger" depart="329.15" departLane="best" from="-32643386" to="42720836"/>
    <trip id="veh245" type="veh_passenger" depart="330.49" departLane="best" from="-84665772#0" to="-32643383"/>
    <trip id="veh246" type="veh_passenger" depart="331.84" departLane="best" from="239298363#3" to="-32641108#0"/>
    <trip id="veh248" type="veh_passenger" depart="334.54" departLane="best" departSpeed="max" from="32138520#0" to="-32742934"/>
    <trip id="veh250" type="veh_passenger" depart="337.24" departLane="best" from="-32743447#2" to="32138527#0"/>
    <trip id="veh251" type="veh_passenger" depart="338.59" departLane="best" from="-397813663#2" to="-32138520#0"/>
    <trip id="veh252" type="veh_passenger" depart="339.94" departLane="best" from="616568701#1" to="-852028396"/>
    <trip id="veh253" type="veh_passenger" depart="341.29" departLane="best" from="32642634#2" to="239298364#2"/>
    <trip id="veh254" type="veh_passenger" depart="342.64" departLane="best" from="-84665772#0" to="32742938"/>
    <trip id="veh255" type="veh_passenger" depart="343.98" departLane="best" departSpeed="max" from="852028350#0" to="-852028396"/>
    <trip id="veh257" type="veh_passenger" depart="346.68" departLane="best" departSpeed="max" from="32742936" to="-32641093#2"/>
    <trip id="veh258" type="veh_passenger" depart="348.03" departLane="best" from="-32641112#5" to="-50084610#1"/>
    <trip id="veh261" type="veh_passenger" depart="352.08" departLane="best" departSpeed="max" from="449063711" to="-778244076#4"/>
    <trip id="veh262" type="veh_passenger" depart="353.43" departLane="best" from="-31054615#4" to="-84618376#0"/>
    <trip id="veh263" type="veh_passenger" depart="354.78" departLane="best" departSpeed="max" from="32138467#0" to="-778244075#4"/>
    <trip id="veh264" type="veh_passenger" depart="356.12" departLane="best" departSpeed="max" from="683082548" to="683082543"/>
    <trip id="veh265" type="veh_passenger" depart="357.47" departLane="best" from="-32641112#8" to="852028395#0"/>
    <trip id="veh267" type="veh_passenger" depart="360.17" departLane="best" from="32743431#1" to="-103961468#2"/>
    <trip id="veh268" type="veh_passenger" depart="361.52" departLane="best" from="-393508969#1" to="-852028396"/>
    <trip id="veh269" type="veh_passenger" depart="362.87" departLane="best" from="778244076#3" to="652942143#1"/>
    <trip id="veh270" type="veh_passenger" depart="364.22" departLane="best" departSpeed="max" from="32138492" to="239298363#4"/>
    <trip id="veh271" type="veh_passenger" depart="365.57" departLane="best" from="311542351#2" to="-393508972#5"/>